#Caution: 
#Input/Original file: benzene.pdb 
#This benzene.mol2 is synthesized from benzene.pdb using Open Babel 2.3.0
#

@<TRIPOS>MOLECULE
/scratch/phpylXdYU_benzene.pdb
 12 12 0 0 0
SMALL
GASTEIGER

@<TRIPOS>ATOM
      1  C1        -0.0170    1.3780    0.0100 C.ar    1  BNZ1       -0.0618
      2  H7        -0.9590    1.9050    0.0260 H       1  BNZ1        0.0618
      3  C2         1.1710    2.0860    0.0020 C.ar    1  BNZ1       -0.0618
      4  H8         1.1560    3.1650    0.0080 H       1  BNZ1        0.0618
      5  C3         2.3770    1.4110   -0.0130 C.ar    1  BNZ1       -0.0618
      6  H9         3.3050    1.9630   -0.0200 H       1  BNZ1        0.0618
      7  C4         2.3960    0.0290   -0.0200 C.ar    1  BNZ1       -0.0618
      8  H10        3.3380   -0.4990   -0.0330 H       1  BNZ1        0.0618
      9  C5         1.2080   -0.6790   -0.0120 C.ar    1  BNZ1       -0.0618
     10  H11        1.2230   -1.7590   -0.0180 H       1  BNZ1        0.0618
     11  C6         0.0020   -0.0040    0.0020 C.ar    1  BNZ1       -0.0618
     12  H12       -0.9260   -0.5570    0.0090 H       1  BNZ1        0.0618
@<TRIPOS>BOND
     1     8     7    1
     2     6     5    1
     3     7     5   ar
     4     7     9   ar
     5    10     9    1
     6     5     3   ar
     7     9    11   ar
     8     3     4    1
     9     3     1   ar
    10    11    12    1
    11    11     1   ar
    12     1     2    1
