#Caution: 
#Input/Original file: MQD.pdb 
#This MQD.mol2 is synthesized from MQD.pdb using Open Babel 2.3.0
#

@<TRIPOS>MOLECULE
/scratch/phpMi77We_MQD.pdb
 23 22 0 0 0
SMALL
GASTEIGER

@<TRIPOS>ATOM
      1  O8         1.2520   -2.5910   -0.1740 O.3     1  MQD1       -0.3865
      2  O10        1.1650   -3.9280   -2.7160 O.3     1  MQD1       -0.3922
      3  H20        2.1860   -2.3630   -0.0780 H       1  MQD1        0.2102
      4  H23        1.5930   -4.3110   -3.4940 H       1  MQD1        0.2095
      5  C9         1.3470   -2.5170   -2.5870 C.3     1  MQD1        0.0728
      6  H21        0.9310   -2.0160   -3.4620 H       1  MQD1        0.0586
      7  H22        2.4100   -2.2920   -2.5120 H       1  MQD1        0.0586
      8  C2         0.0020   -0.0040    0.0020 C.3     1  MQD1        0.0551
      9  H3        -1.0200   -0.3810    0.0100 H       1  MQD1        0.0591
     10  O4         0.6930   -0.4770    1.1600 O.3     1  MQD1       -0.3920
     11  H14        1.6110   -0.1800    1.2190 H       1  MQD1        0.2098
     12  C6         0.6300   -2.0230   -1.3290 C.3     1  MQD1        0.0885
     13  C1        -0.0190    1.5260    0.0100 C.3     1  MQD1       -0.0389
     14  H11        1.0040    1.9030    0.0030 H       1  MQD1        0.0254
     15  H12       -0.5460    1.8870   -0.8730 H       1  MQD1        0.0254
     16  H13       -0.5290    1.8770    0.9070 H       1  MQD1        0.0254
     17  C7        -0.8390   -2.4480   -1.3780 C.3     1  MQD1       -0.0338
     18  H17       -1.3130   -2.0150   -2.2590 H       1  MQD1        0.0258
     19  H18       -0.9010   -3.5350   -1.4290 H       1  MQD1        0.0258
     20  H19       -1.3490   -2.0960   -0.4810 H       1  MQD1        0.0258
     21  C5         0.7180   -0.4970   -1.2570 C.3     1  MQD1        0.0037
     22  H15        0.2440   -0.0640   -2.1380 H       1  MQD1        0.0318
     23  H16        1.7650   -0.1950   -1.2220 H       1  MQD1        0.0318
@<TRIPOS>BOND
     1     4     2    1
     2     6     5    1
     3     2     5    1
     4     5     7    1
     5     5    12    1
     6    18    17    1
     7    22    21    1
     8    19    17    1
     9    17    12    1
    10    17    20    1
    11    12    21    1
    12    12     1    1
    13    21    23    1
    14    21     8    1
    15    15    13    1
    16     1     3    1
    17     8    13    1
    18     8     9    1
    19     8    10    1
    20    14    13    1
    21    13    16    1
    22    10    11    1
